Circuit: * E:\Documents\GitHub\nist\KiCAD\Windchill01\LTSpice\Windchill01.asc

Direct Newton iteration failed to find .op point.  (Use ".option noopiter" to skip.)
Starting Gmin stepping
Gmin = 10
Gmin = 1.07374
Gmin = 0.115292
Gmin = 0.0123794
Gmin = 0.00132923
Gmin = 0.000142725
Gmin = 1.5325e-005
vernier = 0.5
vernier = 0.666667
Gmin = 5.35545e-006
vernier = 0.888888
vernier = 1
Gmin = 8.09366e-007
Gmin = 8.6905e-008
Gmin = 9.33136e-009
Gmin = 1.00195e-009
Gmin = 1.07583e-010
Gmin = 1.15517e-011
Gmin = 1.24035e-012
Gmin = 1.33182e-013
Gmin = 0
Gmin stepping succeeded in finding the operating point.


Date: Wed Jun 24 12:44:18 2020
Total elapsed time: 0.314 seconds.

tnom = 27
temp = 27
method = modified trap
totiter = 15885
traniter = 15346
tranpoints = 4525
accept = 3612
rejected = 913
matrix size = 37
fillins = 8
solver = Normal
Thread vector: 4.5/3.8[2] 1.4/1.8[1] 0.7/1.3[1] 0.1/1.0[1]  2592/500
Matrix Compiler1: 2.71 KB object code size  0.5/0.4/[0.1]
Matrix Compiler2: 3.45 KB object code size  0.3/0.6/[0.3]

